4zs3_ligand
     RDKit          3D

 26 29  0  0  0  0  0  0  0  0999 V2000
  177.8390    5.5480   33.8720 O   0  0  0  0  0  1  0  0  0  0  0  0
  177.2190    6.3640   33.1490 C   0  0  0  0  0  0  0  0  0  0  0  0
  177.2260    6.2820   31.9040 O   0  0  0  0  0  0  0  0  0  0  0  0
  176.4360    7.4450   33.7720 C   0  0  0  0  0  0  0  0  0  0  0  0
  177.0850    8.2870   34.6740 C   0  0  0  0  0  0  0  0  0  0  0  0
  176.3830    9.3150   35.2900 C   0  0  0  0  0  0  0  0  0  0  0  0
  176.9830   10.1230   36.1490 N   0  0  0  0  0  0  0  0  0  0  0  0
  175.0360    9.4890   34.9920 C   0  0  0  0  0  0  0  0  0  0  0  0
  174.3900    8.6400   34.0910 C   0  0  0  0  0  0  0  0  0  0  0  0
  175.0780    7.6100   33.4540 C   0  0  0  0  0  0  0  0  0  0  0  0
  174.4070    6.7600   32.5830 C   0  0  0  0  0  0  0  0  0  0  0  0
  173.8070    7.2100   31.3760 C   0  0  0  0  0  0  0  0  0  0  0  0
  174.1110    8.4450   30.7920 C   0  0  0  0  0  0  0  0  0  0  0  0
  173.4880    8.8470   29.6040 C   0  0  0  0  0  0  0  0  0  0  0  0
  172.5480    8.0250   28.9810 C   0  0  0  0  0  0  0  0  0  0  0  0
  171.9300    8.3900   27.8510 O   0  0  0  0  0  0  0  0  0  0  0  0
  172.2440    6.8020   29.5520 C   0  0  0  0  0  0  0  0  0  0  0  0
  172.8650    6.4060   30.7230 C   0  0  0  0  0  0  0  0  0  0  0  0
  172.5080    5.1810   31.2360 O   0  0  0  0  0  0  0  0  0  0  0  0
  174.0300    5.4940   33.0870 C   0  0  0  0  0  0  0  0  0  0  0  0
  173.0830    4.7170   32.4100 C   0  0  0  0  0  0  0  0  0  0  0  0
  172.7000    3.4690   32.9010 C   0  0  0  0  0  0  0  0  0  0  0  0
  174.5760    4.9780   34.2760 C   0  0  0  0  0  0  0  0  0  0  0  0
  174.2000    3.7280   34.7530 C   0  0  0  0  0  0  0  0  0  0  0  0
  173.2600    2.9730   34.0740 C   0  0  0  0  0  0  0  0  0  0  0  0
  172.9050    1.7820   34.5540 O   0  0  0  0  0  0  0  0  0  0  0  0
  1  2  1  0
  2  3  2  0
  2  4  1  0
  4  5  2  0
  4 10  1  0
  5  6  1  0
  6  7  1  0
  6  8  2  0
  8  9  1  0
  9 10  2  0
 10 11  1  0
 11 12  1  0
 11 20  1  0
 12 13  2  0
 12 18  1  0
 13 14  1  0
 14 15  2  0
 15 16  1  0
 15 17  1  0
 17 18  2  0
 18 19  1  0
 19 21  1  0
 20 21  2  0
 20 23  1  0
 21 22  1  0
 22 25  2  0
 23 24  2  0
 24 25  1  0
 25 26  1  0
M  CHG  1   1  -1
M  END
