5jsj_6pd_lig
  PyMOL3.1          3D                             0

 50 56  0  0  0  0  0  0  0  0999 V2000
   13.6490  -17.8040   -2.5110 O   0  0  0  0  0  0  0  0  0  0  0  0
   12.9510  -17.6850   -1.5060 C   0  0  0  0  0  0  0  0  0  0  0  0
   12.4860  -18.9180   -0.8270 C   0  0  0  0  0  0  0  0  0  0  0  0
   12.9300  -19.3550    0.4240 C   0  0  0  0  0  0  0  0  0  0  0  0
   12.3770  -20.5840    0.9490 C   0  0  0  0  0  0  0  0  0  0  0  0
   11.4560  -21.3820    0.3210 C   0  0  0  0  0  0  0  0  0  0  0  0
   11.0450  -20.9440   -0.9370 C   0  0  0  0  0  0  0  0  0  0  0  0
   11.5650  -19.7470   -1.4640 C   0  0  0  0  0  0  0  0  0  0  0  0
   11.0280  -22.6550    1.0310 C   0  0  0  0  0  0  0  0  0  0  0  0
   11.8570  -23.7440    1.2100 N   0  0  0  0  0  0  0  0  0  0  0  0
   11.3870  -24.9160    1.9650 C   0  0  0  0  0  0  0  0  0  0  0  0
   12.3530  -25.2020    3.1430 C   0  0  0  0  0  0  0  0  0  0  0  0
   13.7760  -25.4810    2.6210 C   0  0  0  0  0  0  0  0  0  0  0  0
   14.2280  -24.3170    1.7840 C   0  0  0  0  0  0  0  0  0  0  0  0
   13.2230  -23.8840    0.7270 C   0  0  0  0  0  0  0  0  0  0  0  0
   14.7990  -25.8160    3.7310 C   0  0  0  0  0  0  0  0  0  0  0  0
   14.1820  -26.8270    4.6780 C   0  0  0  0  0  0  0  0  0  0  0  0
   14.0280  -28.1440    3.9280 N   0  0  0  0  0  0  0  0  0  0  0  0
   15.2570  -28.5510    3.1650 C   0  0  0  0  0  0  0  0  0  0  0  0
   15.5620  -30.0080    3.4690 C   0  0  0  0  0  0  0  0  0  0  0  0
   14.8030  -30.3410    4.7240 C   0  0  0  0  0  0  0  0  0  0  0  0
   13.7470  -29.2370    4.8810 C   0  0  0  0  0  0  0  0  0  0  0  0
    9.9210  -22.7470    1.5500 O   0  0  0  0  0  0  0  0  0  0  0  0
   13.8330  -18.6360    1.2130 N   0  0  0  0  0  0  0  0  0  0  0  0
   13.4920  -18.3080    2.4860 C   0  0  0  0  0  0  0  0  0  0  0  0
   13.4380  -19.2430    3.4540 C   0  0  0  0  0  0  0  0  0  0  0  0
   12.9980  -19.0180    4.7060 C   0  0  0  0  0  0  0  0  0  0  0  0
   12.6140  -17.8320    5.0270 C   0  0  0  0  0  0  0  0  0  0  0  0
   12.6470  -16.8750    4.0750 C   0  0  0  0  0  0  0  0  0  0  0  0
   13.0580  -17.1350    2.8180 C   0  0  0  0  0  0  0  0  0  0  0  0
   12.1880  -17.6320    6.2490 O   0  0  0  0  0  0  0  0  0  0  0  0
   10.7040  -17.8860    6.2100 C   0  0  0  0  0  0  0  0  0  0  0  0
    9.8870  -16.5190    5.9840 N   0  0  0  0  0  0  0  0  0  0  0  0
    9.7920  -15.9950    4.5680 C   0  0  0  0  0  0  0  0  0  0  0  0
    8.7550  -14.8460    4.5950 C   0  0  0  0  0  0  0  0  0  0  0  0
    7.7630  -15.3130    5.6650 C   0  0  0  0  0  0  0  0  0  0  0  0
    8.4400  -16.5420    6.3710 C   0  0  0  0  0  0  0  0  0  0  0  0
   12.7100  -16.3670   -1.0880 N   0  0  0  0  0  0  0  0  0  0  0  0
   13.2470  -15.2160   -1.8130 C   0  0  0  0  0  0  0  0  0  0  0  0
   14.2560  -14.4640   -0.9430 C   0  0  0  0  0  0  0  0  0  0  0  0
   13.8190  -14.2320    0.5160 C   0  0  0  0  0  0  0  0  0  0  0  0
   12.3640  -14.6410    0.7380 C   0  0  0  0  0  0  0  0  0  0  0  0
   11.9410  -15.9490    0.0670 C   0  0  0  0  0  0  0  0  0  0  0  0
   13.9330  -12.8020    0.9180 C   0  0  0  0  0  0  0  0  0  0  0  0
   14.1500  -12.6480    2.4110 C   0  0  0  0  0  0  0  0  0  0  0  0
   15.2450  -11.6050    2.6460 N   0  0  0  0  0  0  0  0  0  0  0  0
   15.7140  -10.8350    1.4680 C   0  0  0  0  0  0  0  0  0  0  0  0
   16.6320   -9.7440    2.0620 C   0  0  0  0  0  0  0  0  0  0  0  0
   16.0930   -9.5210    3.4790 C   0  0  0  0  0  0  0  0  0  0  0  0
   14.9850  -10.5870    3.6920 C   0  0  0  0  0  0  0  0  0  0  0  0
  1  2  2  0  0  0  0
  2  3  1  0  0  0  0
  2 38  1  0  0  0  0
  3  4  4  0  0  0  0
  3  8  4  0  0  0  0
  4  5  4  0  0  0  0
  4 24  1  0  0  0  0
  5  6  4  0  0  0  0
  6  7  4  0  0  0  0
  6  9  1  0  0  0  0
  7  8  4  0  0  0  0
  9 10  1  0  0  0  0
  9 23  2  0  0  0  0
 10 11  1  0  0  0  0
 11 12  1  0  0  0  0
 12 13  1  0  0  0  0
 13 14  1  0  0  0  0
 13 16  1  0  0  0  0
 10 15  1  0  0  0  0
 14 15  1  0  0  0  0
 16 17  1  0  0  0  0
 17 18  1  0  0  0  0
 18 19  1  0  0  0  0
 19 20  1  0  0  0  0
 20 21  1  0  0  0  0
 21 22  1  0  0  0  0
 18 22  1  0  0  0  0
 24 25  1  0  0  0  0
 25 30  4  0  0  0  0
 25 26  4  0  0  0  0
 26 27  4  0  0  0  0
 27 28  4  0  0  0  0
 28 29  4  0  0  0  0
 28 31  1  0  0  0  0
 29 30  4  0  0  0  0
 31 32  1  0  0  0  0
 32 33  1  0  0  0  0
 33 34  1  0  0  0  0
 33 37  1  0  0  0  0
 34 35  1  0  0  0  0
 35 36  1  0  0  0  0
 36 37  1  0  0  0  0
 38 39  1  0  0  0  0
 38 43  1  0  0  0  0
 39 40  1  0  0  0  0
 40 41  1  0  0  0  0
 41 42  1  0  0  0  0
 41 44  1  0  0  0  0
 42 43  1  0  0  0  0
 44 45  1  0  0  0  0
 45 46  1  0  0  0  0
 46 47  1  0  0  0  0
 46 50  1  0  0  0  0
 47 48  1  0  0  0  0
 48 49  1  0  0  0  0
 49 50  1  0  0  0  0
M  END
$$$$
