4UMX_VVS_A_1415
     RDKit          3D

 27 29  0  0  0  0  0  0  0  0999 V2000
   48.4813    9.6879  -37.7068 C   0  0  0  0  0  0  0  0  0  0  0  0
   49.1532    9.1159  -38.7910 C   0  0  0  0  0  0  0  0  0  0  0  0
   47.3147   10.4374  -37.9232 C   0  0  0  0  0  0  0  0  0  0  0  0
   48.9999    9.4564  -36.3248 C   0  0  0  0  0  0  0  0  0  0  0  0
   48.6900    9.2977  -40.1048 C   0  0  0  0  0  0  0  0  0  0  0  0
   46.8270   10.6036  -39.2282 C   0  0  0  0  0  0  0  0  0  0  0  0
   46.6428   11.0118  -36.8477 O   0  0  0  0  0  0  0  0  0  0  0  0
   48.4516    8.2246  -35.7803 N   0  0  0  0  0  0  0  0  0  0  0  0
   47.5110   10.0338  -40.3051 C   0  0  0  0  0  0  0  0  0  0  0  0
   49.3966    8.6603  -41.2888 C   0  0  0  0  0  0  0  0  0  0  0  0
   45.6093   11.4272  -39.4943 C   0  0  0  0  0  0  0  0  0  0  0  0
   48.9721    6.9958  -35.9182 C   0  0  0  0  0  0  0  0  0  0  0  0
   47.3046    8.1014  -35.0953 C   0  0  0  0  0  0  0  0  0  0  0  0
   49.4261    9.6033  -42.5140 C   0  0  0  0  0  0  0  0  0  0  0  0
   50.8055    8.1893  -40.9390 C   0  0  0  0  0  0  0  0  0  0  0  0
   48.6088    7.4280  -41.6919 C   0  0  0  0  0  0  0  0  0  0  0  0
   45.9907   12.7854  -39.8474 N   0  0  0  0  0  0  0  0  0  0  0  0
   48.1109    6.1205  -35.2845 C   0  0  0  0  0  0  0  0  0  0  0  0
   47.0718    6.8150  -34.7725 N   0  0  0  0  0  0  0  0  0  0  0  0
   50.3791   10.8148  -42.5049 C   0  0  0  0  0  0  0  0  0  0  0  0
   46.2756   13.2340  -41.0793 C   0  0  0  0  0  0  0  0  0  0  0  0
   46.1881   13.8012  -38.9936 C   0  0  0  0  0  0  0  0  0  0  0  0
   50.3258   11.6001  -41.2067 C   0  0  0  0  0  0  0  0  0  0  0  0
   51.8068   10.3779  -42.7718 C   0  0  0  0  0  0  0  0  0  0  0  0
   49.9602   11.7407  -43.6266 C   0  0  0  0  0  0  0  0  0  0  0  0
   46.6398   14.5605  -40.9504 C   0  0  0  0  0  0  0  0  0  0  0  0
   46.5835   14.9101  -39.6471 N   0  0  0  0  0  0  0  0  0  0  0  0
  1  2  2  0
  1  3  1  0
  1  4  1  0
  2  5  1  0
  3  6  2  0
  3  7  1  0
  4  8  1  0
  5  9  2  0
  5 10  1  0
  6  9  1  0
  6 11  1  0
  8 12  1  0
  8 13  1  0
 10 14  1  0
 10 15  1  0
 10 16  1  0
 11 17  1  0
 12 18  2  0
 13 19  2  0
 14 20  1  0
 17 21  1  0
 17 22  1  0
 18 19  1  0
 20 23  1  0
 20 24  1  0
 20 25  1  0
 21 26  2  0
 22 27  2  0
 26 27  1  0
A    1
C1
A    2
C2
A    3
C3
A    4
C4
A    5
C5
A    6
C6
A    7
O7
A    8
N8
A    9
C9
A   10
C10
A   11
C11
A   12
C12
A   13
C13
A   14
C14
A   15
C15
A   16
C16
A   17
N17
A   18
C18
A   19
N19
A   20
C20
A   21
C21
A   22
C22
A   23
C23
A   24
C24
A   25
C25
A   26
C26
A   27
N27
M  END
