2r6w_ligand
     RDKit          3D

 35 39  0  0  0  0  0  0  0  0999 V2000
   10.7080   53.3480   59.6360 C   0  0  0  0  0  0  0  0  0  0  0  0
   10.2010   54.6090   60.1340 C   0  0  0  0  0  0  0  0  0  0  0  0
    8.7920   54.8130   60.2910 C   0  0  0  0  0  0  0  0  0  0  0  0
   11.7390   56.6550   71.3940 C   0  0  0  0  0  0  0  0  0  0  0  0
   13.2350   53.9520   59.7510 C   0  0  0  0  0  0  0  0  0  0  0  0
   14.1970   55.0950   63.7940 C   0  0  0  0  0  0  0  0  0  0  0  0
   14.8140   55.7760   62.7110 C   0  0  0  0  0  0  0  0  0  0  0  0
   14.4950   55.3920   61.3700 C   0  0  0  0  0  0  0  0  0  0  0  0
   15.2480   56.4120   65.4630 C   0  0  0  0  0  0  0  0  0  0  0  0
   13.8880   54.4290   58.8390 O   0  0  0  0  0  0  0  0  0  0  0  0
   12.1240   53.0060   59.4430 C   0  0  0  0  0  0  0  0  0  0  0  0
   12.2990   51.6840   58.9650 C   0  0  0  0  0  0  0  0  0  0  0  0
   13.6050   51.0450   58.6540 C   0  0  0  0  0  0  0  0  0  0  0  0
   14.6140   50.9770   59.6100 C   0  0  0  0  0  0  0  0  0  0  0  0
   15.8550   50.3780   59.2780 C   0  0  0  0  0  0  0  0  0  0  0  0
   16.0650   49.8660   57.9880 C   0  0  0  0  0  0  0  0  0  0  0  0
   17.2630   49.2760   57.6190 O   0  0  0  0  0  0  0  0  0  0  0  0
   15.0450   49.9230   57.0100 C   0  0  0  0  0  0  0  0  0  0  0  0
   13.8060   50.5260   57.3600 C   0  0  0  0  0  0  0  0  0  0  0  0
   10.7740   50.9350   58.7570 S   0  0  0  0  0  0  0  0  0  0  0  0
    9.8470   52.3010   59.2910 C   0  0  0  0  0  0  0  0  0  0  0  0
    8.4540   52.4840   59.4420 C   0  0  0  0  0  0  0  0  0  0  0  0
    7.9420   53.7470   59.9390 C   0  0  0  0  0  0  0  0  0  0  0  0
    6.5930   53.8990   60.0350 O   0  0  0  0  0  0  0  0  0  0  0  0
   13.5620   54.3280   61.1600 C   0  0  0  0  0  0  0  0  0  0  0  0
   13.2770   54.0730   63.5960 C   0  0  0  0  0  0  0  0  0  0  0  0
   12.9500   53.6820   62.2850 C   0  0  0  0  0  0  0  0  0  0  0  0
   14.4150   55.3460   65.1190 O   0  0  0  0  0  0  0  0  0  0  0  0
   15.4330   56.3180   66.9750 C   0  0  0  0  0  0  0  0  0  0  0  0
   14.3510   56.6080   67.9170 N   0  0  0  0  0  4  0  0  0  0  0  0
   13.5420   55.3660   68.1680 C   0  0  0  0  0  0  0  0  0  0  0  0
   12.4690   55.4960   69.2680 C   0  0  0  0  0  0  0  0  0  0  0  0
   12.9630   56.2400   70.5520 C   0  0  0  0  0  0  0  0  0  0  0  0
   13.7750   57.4960   70.2600 C   0  0  0  0  0  0  0  0  0  0  0  0
   14.8430   57.2060   69.1970 C   0  0  0  0  0  0  0  0  0  0  0  0
  1  2  2  0
 11  1  1  0
  1 21  1  0
  2  3  1  0
  3 23  2  0
 33  4  1  0
  5 10  2  0
  5 11  1  0
 25  5  1  0
  6  7  2  0
  6 26  1  0
 28  6  1  0
  7  8  1  0
  8 25  2  0
  9 28  1  0
 29  9  1  0
 11 12  2  0
 12 13  1  0
 12 20  1  0
 13 14  2  0
 13 19  1  0
 14 15  1  0
 15 16  2  0
 16 17  1  0
 18 16  1  0
 19 18  2  0
 20 21  1  0
 21 22  2  0
 22 23  1  0
 23 24  1  0
 27 25  1  0
 26 27  2  0
 30 29  1  0
 31 30  1  0
 30 35  1  0
 32 31  1  0
 32 33  1  0
 33 34  1  0
 34 35  1  0
M  CHG  1  30   1
M  END
