ATP
     RDKit          3D

 31 33  0  0  1  0  0  0  0  0999 V2000
  118.5530   89.3140  105.9640 P   0  0  0  0  0  0  0  0  0  0  0  0
  118.6970   89.0510  104.4890 O   0  0  0  0  0  0  0  0  0  0  0  0
  118.7120   88.1200  106.8600 O   0  0  0  0  0  0  0  0  0  0  0  0
  117.3450   90.1240  106.3270 O   0  0  0  0  0  0  0  0  0  0  0  0
  120.8650   90.7030  105.1870 P   0  0  2  0  0  0  0  0  0  0  0  0
  120.1190   91.6070  104.2380 O   0  0  0  0  0  0  0  0  0  0  0  0
  121.5610   89.4690  104.6620 O   0  0  0  0  0  0  0  0  0  0  0  0
  119.8390   90.2100  106.3260 O   0  0  0  0  0  0  0  0  0  0  0  0
  121.6170   92.6570  107.1140 P   0  0  2  0  0  0  0  0  0  0  0  0
  120.1470   92.9880  106.9700 O   0  0  0  0  0  0  0  0  0  0  0  0
  122.6500   93.7630  107.0810 O   0  0  0  0  0  0  0  0  0  0  0  0
  121.9820   91.5700  105.9730 O   0  0  0  0  0  0  0  0  0  0  0  0
  121.8460   91.8290  108.4720 O   0  0  0  0  0  0  0  0  0  0  0  0
  123.1430   91.3260  108.7730 C   0  0  0  0  0  0  0  0  0  0  0  0
  123.0470   90.0850  109.6560 C   0  0  1  0  0  0  0  0  0  0  0  0
  122.2730   90.3730  110.8210 O   0  0  0  0  0  0  0  0  0  0  0  0
  122.3580   88.9300  108.9450 C   0  0  1  0  0  0  0  0  0  0  0  0
  122.9830   87.6900  109.3100 O   0  0  0  0  0  0  0  0  0  0  0  0
  120.9470   88.9700  109.4640 C   0  0  1  0  0  0  0  0  0  0  0  0
  120.3060   87.6970  109.4790 O   0  0  0  0  0  0  0  0  0  0  0  0
  121.1530   89.4930  110.8740 C   0  0  2  0  0  0  0  0  0  0  0  0
  119.9470   90.1980  111.3340 N   0  0  0  0  0  0  0  0  0  0  0  0
  119.3850   91.2850  110.7630 C   0  0  0  0  0  0  0  0  0  0  0  0
  118.2820   91.6690  111.4410 N   0  0  0  0  0  0  0  0  0  0  0  0
  118.1420   90.8100  112.4570 C   0  0  0  0  0  0  0  0  0  0  0  0
  117.1780   90.6530  113.5630 C   0  0  0  0  0  0  0  0  0  0  0  0
  116.1550   91.5180  113.6790 N   0  0  0  0  0  0  0  0  0  0  0  0
  117.3700   89.6240  114.4220 N   0  0  0  0  0  0  0  0  0  0  0  0
  118.4050   88.7810  114.2840 C   0  0  0  0  0  0  0  0  0  0  0  0
  119.3190   88.8670  113.3020 N   0  0  0  0  0  0  0  0  0  0  0  0
  119.2300   89.8430  112.3830 C   0  0  0  0  0  0  0  0  0  0  0  0
  1  2  2  0
  1  3  1  0
  1  4  1  0
  1  8  1  0
  5  6  2  0
  5  7  1  6
  5  8  1  0
  5 12  1  0
  9 10  2  0
  9 11  1  1
  9 12  1  0
  9 13  1  0
 13 14  1  0
 15 14  1  6
 15 16  1  0
 15 17  1  0
 16 21  1  0
 17 18  1  1
 17 19  1  0
 19 20  1  1
 19 21  1  0
 21 22  1  6
 22 23  1  0
 22 31  1  0
 23 24  2  0
 24 25  1  0
 25 26  2  0
 25 31  1  0
 26 27  1  0
 26 28  1  0
 28 29  2  0
 29 30  1  0
 30 31  2  0
M  END
$$$$
